.include "8clocks.jsim"
.include "labsubckts.jsim"

Xfx clk1 clk2 clk3 clk4 clk5 clk6 clk7 outfx fx
Xfa clk5 clk6 clk7 sfa cfa fa

.tran 640ns
.plot clk1
.plot clk2
.plot clk3
.plot clk4
.plot clk5
.plot clk6
.plot clk7
.plot outfx
.plot sfa
.plot cfa