.include "8clocks.jsim"
.include "labsubckts.jsim"

Xsum a[31:0] b[31:0] 0 sum[31:0] c31 c30 add32

Wa a[31:0] nrz(0, 5, 20ns, 0ns, 0.001ns, 0.001ns)
+ 0x00000000 0x55555555 0x00000000 0x55555555 0xFFFFFFFF
+ 0xAAAAAAAA 0x00000000 0xAAAAAAAA 0x00000001 0xFFFFFFFF

Wb b[31:0] nrz(0, 5, 20ns, 0ns, 0.001ns, 0.001ns)
+ 0x00000000 0x00000000 0x55555555 0x55555555 0xFFFFFFFF
+ 0x00000000 0xAAAAAAAA 0xAAAAAAAA 0xFFFFFFFF 0x00000001

.tran 200ns
.plot a[31:0]
.plot b[31:0]
.plot sum[31:0]